Version 4
SHEET 1 1420 680
WIRE 64 112 0 112
WIRE 192 112 144 112
WIRE 272 112 192 112
WIRE 624 112 560 112
WIRE 752 112 704 112
WIRE 832 112 752 112
WIRE 1088 112 1024 112
WIRE 1216 112 1168 112
WIRE 1296 112 1216 112
WIRE -480 128 -528 128
WIRE -384 128 -400 128
WIRE -352 128 -384 128
WIRE 0 128 0 112
WIRE 560 128 560 112
WIRE 1024 128 1024 112
WIRE -528 144 -528 128
WIRE 192 144 192 112
WIRE 752 144 752 112
WIRE 1216 144 1216 112
WIRE -384 160 -384 128
WIRE -528 240 -528 224
WIRE -384 240 -384 224
WIRE 0 256 0 208
WIRE 192 256 192 208
WIRE 560 256 560 208
WIRE 752 256 752 208
WIRE 1024 256 1024 208
WIRE 1216 256 1216 208
FLAG 192 256 0
FLAG 0 256 0
FLAG -528 240 0
FLAG -384 240 0
FLAG -352 128 ESR_check
FLAG 272 112 Ideal
FLAG 752 256 0
FLAG 560 256 0
FLAG 832 112 ESR
FLAG 1216 256 0
FLAG 1024 256 0
FLAG 1296 112 ESR+ESL
SYMBOL voltage 0 112 R0
WINDOW 123 24 124 Left 2
WINDOW 39 0 0 Left 0
SYMATTR Value2 AC 1
SYMATTR InstName V1
SYMATTR Value ""
SYMBOL cap 208 208 R180
WINDOW 0 24 56 Left 2
WINDOW 3 24 8 Left 2
SYMATTR InstName C1
SYMATTR Value 47µ
SYMBOL res 160 96 R90
WINDOW 0 0 56 VBottom 2
WINDOW 3 32 56 VTop 2
SYMATTR InstName R1
SYMATTR Value 5
SYMBOL cap -368 224 R180
WINDOW 0 24 56 Left 2
WINDOW 3 24 8 Left 2
SYMATTR InstName C2
SYMATTR Value 47µ
SYMATTR SpiceLine Rser=4
SYMBOL res -384 112 R90
WINDOW 0 0 56 VBottom 2
WINDOW 3 32 56 VTop 2
SYMATTR InstName R2
SYMATTR Value 5
SYMBOL voltage -528 128 R0
WINDOW 3 -167 92 Left 2
WINDOW 123 0 0 Left 0
WINDOW 39 0 0 Left 0
SYMATTR Value SINE(0 10 100)
SYMATTR InstName V2
SYMBOL voltage 560 112 R0
WINDOW 123 24 124 Left 2
WINDOW 39 0 0 Left 0
SYMATTR Value2 AC 1
SYMATTR InstName V3
SYMATTR Value ""
SYMBOL cap 768 208 R180
WINDOW 0 24 56 Left 2
WINDOW 3 24 8 Left 2
SYMATTR InstName C3
SYMATTR Value 47µ
SYMATTR SpiceLine Rser=4.5
SYMBOL res 720 96 R90
WINDOW 0 0 56 VBottom 2
WINDOW 3 32 56 VTop 2
SYMATTR InstName R3
SYMATTR Value 5
SYMBOL voltage 1024 112 R0
WINDOW 123 24 124 Left 2
WINDOW 39 0 0 Left 0
SYMATTR Value2 AC 1
SYMATTR InstName V4
SYMATTR Value ""
SYMBOL cap 1232 208 R180
WINDOW 0 24 56 Left 2
WINDOW 3 24 8 Left 2
SYMATTR InstName C4
SYMATTR Value 47µ
SYMATTR SpiceLine Rser=4.5 Lser=10n
SYMBOL res 1184 96 R90
WINDOW 0 0 56 VBottom 2
WINDOW 3 32 56 VTop 2
SYMATTR InstName R4
SYMATTR Value 5
TEXT -32 280 Left 2 !.ac dec 1000 10 100Meg
TEXT -560 304 Left 2 !;tran 0 0.1s 0s 10ms
TEXT -664 64 Left 2 ;Check if input voltage actually drops
TEXT 48 40 Left 2 ;Ideal cap
TEXT 608 40 Left 2 ;Ideal cap with ESR
TEXT 1072 40 Left 2 ;Ideal cap with ESR+ESL
