Version 4
SHEET 1 2136 680
WIRE 832 32 816 32
WIRE 1536 48 1440 48
WIRE 1680 48 1600 48
WIRE 48 128 -48 128
WIRE 160 128 128 128
WIRE 288 128 288 112
WIRE 288 128 240 128
WIRE 752 128 752 32
WIRE 752 128 608 128
WIRE 832 128 832 32
WIRE 864 128 832 128
WIRE 992 128 992 112
WIRE 992 128 944 128
WIRE 1056 128 992 128
WIRE 288 144 288 128
WIRE 1440 144 1440 48
WIRE 1440 144 1376 144
WIRE 1472 144 1440 144
WIRE 1584 144 1552 144
WIRE 1680 144 1680 48
WIRE 1680 144 1664 144
WIRE 1712 144 1712 128
WIRE 1712 144 1680 144
WIRE 1776 144 1712 144
WIRE -48 160 -48 128
WIRE 608 176 608 128
WIRE 1376 176 1376 144
WIRE 864 208 800 208
WIRE 1008 208 944 208
WIRE 1056 208 1056 128
WIRE 800 224 800 208
WIRE 1568 224 1520 224
WIRE 1728 224 1648 224
WIRE 1776 224 1776 144
WIRE 1520 240 1520 224
WIRE -48 256 -48 240
WIRE 288 256 288 208
WIRE 608 272 608 256
WIRE 1376 272 1376 256
WIRE 1008 288 1008 208
WIRE 1728 304 1728 224
WIRE 1008 320 1008 288
WIRE 800 336 800 304
WIRE 944 336 800 336
WIRE 1040 336 1040 320
WIRE 1040 336 944 336
WIRE 1056 336 1056 320
WIRE 1056 336 1040 336
WIRE 1728 336 1728 304
WIRE 944 352 944 336
WIRE 1520 352 1520 320
WIRE 1664 352 1520 352
WIRE 1760 352 1760 336
WIRE 1760 352 1664 352
WIRE 1776 352 1776 336
WIRE 1776 352 1760 352
WIRE 1664 368 1664 352
FLAG 288 256 0
FLAG 288 112 RLC_V_DS
FLAG -48 256 0
FLAG 944 352 0
FLAG 992 112 V_DS
FLAG 608 272 0
FLAG 1664 368 0
FLAG 1712 128 V_DS2
FLAG 1376 272 0
SYMBOL res 144 112 R90
WINDOW 0 0 56 VBottom 2
WINDOW 3 32 56 VTop 2
SYMATTR InstName R1
SYMATTR Value 22
SYMBOL ind 144 144 R270
WINDOW 0 32 56 VTop 2
WINDOW 3 5 56 VBottom 2
SYMATTR InstName L1
SYMATTR Value 11.3µ
SYMBOL voltage -48 144 R0
WINDOW 3 -25 186 Left 2
WINDOW 123 0 0 Left 0
WINDOW 39 0 0 Left 0
SYMATTR Value PULSE(0 1 100ns 50ns 50ns 20us 40 2)
SYMATTR InstName V1
SYMBOL res 848 112 R90
WINDOW 0 0 56 VBottom 2
WINDOW 3 32 56 VTop 2
SYMATTR InstName R3
SYMATTR Value 22
SYMBOL ind 848 144 R270
WINDOW 0 32 56 VTop 2
WINDOW 3 5 56 VBottom 2
SYMATTR InstName L2
SYMATTR Value 8.6µ
SYMBOL voltage 800 208 R0
WINDOW 3 -25 186 Left 2
WINDOW 123 0 0 Left 0
WINDOW 39 0 0 Left 0
SYMATTR Value PULSE(-4 12.5 10ns 0 0 8.75us 12.5us 2)
SYMATTR InstName V3
SYMBOL voltage 608 160 R0
WINDOW 123 0 0 Left 0
WINDOW 39 0 0 Left 0
SYMATTR InstName V4
SYMATTR Value 45
SYMBOL cap 272 144 R0
SYMATTR InstName C1
SYMATTR Value 58p
SYMBOL Wolfspeed\\nmos_TO247_4L 1008 208 R0
SYMATTR Value C3M0075120K
SYMATTR InstName X1
SYMBOL res 1568 128 R90
WINDOW 0 0 56 VBottom 2
WINDOW 3 32 56 VTop 2
SYMATTR InstName R2
SYMATTR Value 22
SYMBOL ind 1568 160 R270
WINDOW 0 32 56 VTop 2
WINDOW 3 5 56 VBottom 2
SYMATTR InstName L3
SYMATTR Value 11.3µ
SYMBOL voltage 1520 224 R0
WINDOW 3 -25 186 Left 2
WINDOW 123 0 0 Left 0
WINDOW 39 0 0 Left 0
SYMATTR Value PULSE(-4 12.5 10ns 70ns 50ns 8.75us 12.5us 2)
SYMATTR InstName V2
SYMBOL res 1664 208 R90
WINDOW 0 0 56 VBottom 2
WINDOW 3 32 56 VTop 2
SYMATTR InstName R5
SYMATTR Value 8
SYMBOL voltage 1376 160 R0
WINDOW 123 0 0 Left 0
WINDOW 39 0 0 Left 0
SYMATTR InstName V5
SYMATTR Value 45
SYMBOL Wolfspeed\\nmos_TO247_4L 1728 224 R0
SYMATTR Value C3M0075120K
SYMATTR InstName X2
SYMBOL schottky 1600 32 R90
WINDOW 0 0 32 VBottom 2
WINDOW 3 32 32 VTop 2
SYMATTR InstName D1
SYMATTR Value MBR20100CT
SYMATTR Description Diode
SYMATTR Type diode
SYMBOL cap 816 16 R90
WINDOW 0 0 32 VBottom 2
WINDOW 3 32 32 VTop 2
SYMATTR InstName C2
SYMATTR Value 22n
SYMBOL res 960 192 R90
WINDOW 0 0 56 VBottom 2
WINDOW 3 32 56 VTop 2
SYMATTR InstName R4
SYMATTR Value 8
TEXT 1832 72 Left 2 !.tran 30u
TEXT 1832 96 Left 2 !.include C3M0075120K.lib
TEXT 1832 128 Left 2 !.include E4D20120D.lib
