Version 4
SHEET 1 2944 1164
WIRE 1856 -32 1696 -32
WIRE 1984 -32 1920 -32
WIRE 592 48 544 48
WIRE 672 48 656 48
WIRE 1776 80 1728 80
WIRE 1856 80 1840 80
WIRE 288 144 208 144
WIRE 400 144 368 144
WIRE 512 144 480 144
WIRE 544 144 544 48
WIRE 544 144 512 144
WIRE 576 144 544 144
WIRE 672 144 672 48
WIRE 672 144 656 144
WIRE 688 144 672 144
WIRE 832 144 768 144
WIRE 928 144 912 144
WIRE 1056 144 1056 128
WIRE 1056 144 1008 144
WIRE 1120 144 1056 144
WIRE 1120 160 1120 144
WIRE 1472 176 1392 176
WIRE 1584 176 1552 176
WIRE 1696 176 1696 -32
WIRE 1696 176 1664 176
WIRE 1728 176 1728 80
WIRE 1728 176 1696 176
WIRE 1760 176 1728 176
WIRE 1856 176 1856 80
WIRE 1856 176 1840 176
WIRE 1872 176 1856 176
WIRE 1984 176 1984 -32
WIRE 1984 176 1952 176
WIRE 2016 176 1984 176
WIRE 2112 176 2096 176
WIRE 2240 176 2240 160
WIRE 2240 176 2192 176
WIRE 2304 176 2240 176
WIRE 208 192 208 144
WIRE 880 224 800 224
WIRE 1072 224 960 224
WIRE 1392 224 1392 176
WIRE -288 240 -384 240
WIRE -176 240 -208 240
WIRE -48 240 -48 224
WIRE -48 240 -96 240
WIRE 512 240 512 144
WIRE 1072 240 1072 224
WIRE -48 256 -48 240
WIRE 800 256 800 224
WIRE 2096 256 2048 256
WIRE 2240 256 2176 256
WIRE 2304 256 2304 176
WIRE -384 272 -384 240
WIRE 1696 272 1696 176
WIRE 2048 272 2048 256
WIRE 1104 304 1104 272
WIRE 1120 304 1120 272
WIRE 1120 304 1104 304
WIRE 2240 336 2240 256
WIRE 2256 336 2240 336
WIRE 208 352 208 272
WIRE 256 352 208 352
WIRE 368 352 336 352
WIRE 512 352 512 304
WIRE 512 352 448 352
WIRE 800 352 800 336
WIRE 800 352 512 352
WIRE 1120 352 1120 304
WIRE 1120 352 800 352
WIRE -384 368 -384 352
WIRE -48 368 -48 320
WIRE 208 384 208 352
WIRE 1392 384 1392 304
WIRE 1440 384 1392 384
WIRE 1552 384 1520 384
WIRE 1696 384 1696 336
WIRE 1696 384 1632 384
WIRE 2048 384 2048 352
WIRE 2048 384 1696 384
WIRE 2288 384 2288 368
WIRE 2288 384 2048 384
WIRE 2304 384 2304 368
WIRE 2304 384 2288 384
WIRE 1392 416 1392 384
FLAG -48 368 0
FLAG -48 224 RLC_V_DS
FLAG -384 368 0
FLAG 1056 128 V_DS
FLAG 208 384 0
FLAG 2240 160 V_DS3
FLAG 1392 416 0
SYMBOL res -192 224 R90
WINDOW 0 0 56 VBottom 2
WINDOW 3 32 56 VTop 2
SYMATTR InstName R1
SYMATTR Value 22
SYMBOL ind -192 256 R270
WINDOW 0 32 56 VTop 2
WINDOW 3 5 56 VBottom 2
SYMATTR InstName L1
SYMATTR Value 11.3µ
SYMBOL voltage -384 256 R0
WINDOW 3 -25 186 Left 2
WINDOW 123 0 0 Left 0
WINDOW 39 0 0 Left 0
SYMATTR Value PULSE(0 1 100ns 50ns 50ns 20us 40 2)
SYMATTR InstName V1
SYMBOL res 672 128 R90
WINDOW 0 0 56 VBottom 2
WINDOW 3 32 56 VTop 2
SYMATTR InstName R3
SYMATTR Value 22.5
SYMBOL ind 672 160 R270
WINDOW 0 32 56 VTop 2
WINDOW 3 5 56 VBottom 2
SYMATTR InstName L2
SYMATTR Value 1.5µ
SYMBOL voltage 800 240 R0
WINDOW 3 -688 217 Left 2
WINDOW 123 0 0 Left 0
WINDOW 39 0 0 Left 0
SYMATTR Value PULSE(-4 12.5 10ns 70ns 50ns 8.75us 12.5us 2)
SYMATTR InstName V3
SYMBOL voltage 208 176 R0
WINDOW 123 0 0 Left 0
WINDOW 39 0 0 Left 0
SYMATTR InstName V4
SYMATTR Value 45
SYMBOL cap -64 256 R0
SYMATTR InstName C1
SYMATTR Value 58p
SYMBOL Wolfspeed\\nmos_TO247_4L 1072 160 R0
SYMATTR Value C3M0075120K
SYMATTR InstName X1
SYMBOL res 976 208 R90
WINDOW 0 80 64 VBottom 2
WINDOW 3 32 56 VTop 2
SYMATTR InstName R4
SYMATTR Value 8
SYMBOL cap 656 32 R90
WINDOW 0 0 32 VBottom 2
WINDOW 3 32 32 VTop 2
SYMATTR InstName C2
SYMATTR Value 1.2n
SYMBOL res 384 128 R90
WINDOW 0 0 56 VBottom 2
WINDOW 3 32 56 VTop 2
SYMATTR InstName R6
SYMATTR Value 20m
SYMBOL ind 384 160 R270
WINDOW 0 32 56 VTop 2
WINDOW 3 5 56 VBottom 2
SYMATTR InstName L4
SYMATTR Value 3n
SYMBOL ind 912 160 R270
WINDOW 0 32 56 VTop 2
WINDOW 3 5 56 VBottom 2
SYMATTR InstName L5
SYMATTR Value 3n
SYMBOL res 928 128 R90
WINDOW 0 0 56 VBottom 2
WINDOW 3 32 56 VTop 2
SYMATTR InstName R7
SYMATTR Value 20m
SYMBOL res 352 336 R90
WINDOW 0 0 56 VBottom 2
WINDOW 3 32 56 VTop 2
SYMATTR InstName R8
SYMATTR Value 20m
SYMBOL ind 352 368 R270
WINDOW 0 32 56 VTop 2
WINDOW 3 5 56 VBottom 2
SYMATTR InstName L6
SYMATTR Value 3n
SYMBOL cap 496 240 R0
SYMATTR InstName C4
SYMATTR Value 1n
SYMBOL res 1856 160 R90
WINDOW 0 0 56 VBottom 2
WINDOW 3 32 56 VTop 2
SYMATTR InstName R9
SYMATTR Value 22
SYMBOL ind 1856 192 R270
WINDOW 0 32 56 VTop 2
WINDOW 3 5 56 VBottom 2
SYMATTR InstName L7
SYMATTR Value 2.1µ
SYMBOL voltage 2048 256 R0
WINDOW 3 -688 217 Left 2
WINDOW 123 0 0 Left 0
WINDOW 39 0 0 Left 0
SYMATTR Value PULSE(-4 12.5 10ns 70ns 50ns 8.75us 12.5us 2)
SYMATTR InstName V6
SYMBOL voltage 1392 208 R0
WINDOW 123 0 0 Left 0
WINDOW 39 0 0 Left 0
SYMATTR InstName V7
SYMATTR Value 45
SYMBOL Wolfspeed\\nmos_TO247_4L 2256 256 R0
SYMATTR Value C3M0075120K
SYMATTR InstName X3
SYMBOL res 2192 240 R90
WINDOW 0 80 64 VBottom 2
WINDOW 3 32 56 VTop 2
SYMATTR InstName R10
SYMATTR Value 8
SYMBOL cap 1840 64 R90
WINDOW 0 0 32 VBottom 2
WINDOW 3 32 32 VTop 2
SYMATTR InstName C5
SYMATTR Value 1.2n
SYMBOL res 1568 160 R90
WINDOW 0 0 56 VBottom 2
WINDOW 3 32 56 VTop 2
SYMATTR InstName R11
SYMATTR Value 20m
SYMBOL ind 1568 192 R270
WINDOW 0 32 56 VTop 2
WINDOW 3 5 56 VBottom 2
SYMATTR InstName L8
SYMATTR Value 3n
SYMBOL ind 2096 192 R270
WINDOW 0 32 56 VTop 2
WINDOW 3 5 56 VBottom 2
SYMATTR InstName L9
SYMATTR Value 3n
SYMBOL res 2112 160 R90
WINDOW 0 0 56 VBottom 2
WINDOW 3 32 56 VTop 2
SYMATTR InstName R12
SYMATTR Value 20m
SYMBOL res 1536 368 R90
WINDOW 0 0 56 VBottom 2
WINDOW 3 32 56 VTop 2
SYMATTR InstName R13
SYMATTR Value 20m
SYMBOL ind 1536 400 R270
WINDOW 0 32 56 VTop 2
WINDOW 3 5 56 VBottom 2
SYMATTR InstName L10
SYMATTR Value 3n
SYMBOL cap 1680 272 R0
SYMATTR InstName C6
SYMATTR Value 1n
SYMBOL schottky 1920 -48 R90
WINDOW 0 0 32 VBottom 2
WINDOW 3 32 32 VTop 2
SYMATTR InstName D2
SYMATTR Value MBR20100CT
SYMATTR Description Diode
SYMATTR Type diode
TEXT -384 -24 Left 2 !.tran 30u
TEXT -384 0 Left 2 !.include C3M0075120K.lib
