[Format]      =  4.0
[Frequency]   =  0
[Precision]   =  1e-008
[MinAngle]    =  30
[DoSmartMesh] =  1
[Depth]       =  18.899999999999999
[LengthUnits] =  millimeters
[ProblemType] =  planar
[Coordinates] =  cartesian
[ACSolver]    =  0
[PrevType]    =  0
[PrevSoln]    =  ""
[Comment]     =  "Add comments here."
[PointProps]   = 0
[BdryProps]   = 1
  <BeginBdry>
    <BdryName> = "Boundary"
    <BdryType> = 0
    <A_0> = 0
    <A_1> = 0
    <A_2> = 0
    <Phi> = 0
    <c0> = 0
    <c0i> = 0
    <c1> = 0
    <c1i> = 0
    <Mu_ssd> = 0
    <Sigma_ssd> = 0
    <innerangle> = 0
    <outerangle> = 0
  <EndBdry>
[BlockProps]  = 4
  <BeginBlock>
    <BlockName> = "Air"
    <Mu_x> = 1
    <Mu_y> = 1
    <H_c> = 0
    <H_cAngle> = 0
    <J_re> = 0
    <J_im> = 0
    <Sigma> = 0
    <d_lam> = 0
    <Phi_h> = 0
    <Phi_hx> = 0
    <Phi_hy> = 0
    <LamType> = 0
    <LamFill> = 1
    <NStrands> = 0
    <WireD> = 0
    <BHPoints> = 0
  <EndBlock>
  <BeginBlock>
    <BlockName> = "26 AWG"
    <Mu_x> = 1
    <Mu_y> = 1
    <H_c> = 0
    <H_cAngle> = 0
    <J_re> = 0
    <J_im> = 0
    <Sigma> = 58
    <d_lam> = 0
    <Phi_h> = 0
    <Phi_hx> = 0
    <Phi_hy> = 0
    <LamType> = 3
    <LamFill> = 1
    <NStrands> = 1
    <WireD> = 0.40501891210693097
    <BHPoints> = 0
  <EndBlock>
  <BeginBlock>
    <BlockName> = "3C90_25degrees"
    <Mu_x> = 1
    <Mu_y> = 1
    <H_c> = 0
    <H_cAngle> = 0
    <J_re> = 0
    <J_im> = 0
    <Sigma> = 0
    <d_lam> = 0
    <Phi_h> = 0
    <Phi_hx> = 0
    <Phi_hy> = 0
    <LamType> = 0
    <LamFill> = 1
    <NStrands> = 0
    <WireD> = 0
    <BHPoints> = 26
      0	0
      0.105	5
      0.14199999999999999	15
      0.17299999999999999	25
      0.20200000000000001	35
      0.23300000000000001	45
      0.26000000000000001	55
      0.28299999999999997	65
      0.30199999999999999	75
      0.316	85
      0.33400000000000002	95
      0.34499999999999997	105
      0.36799999999999999	115
      0.38600000000000001	125
      0.39600000000000002	135
      0.40400000000000003	145
      0.40999999999999998	155
      0.41399999999999998	165
      0.41899999999999998	175
      0.42199999999999999	185
      0.42499999999999999	195
      0.42799999999999999	205
      0.42899999999999999	215
      0.42999999999999999	225
      0.43099999999999999	235
      0.432	245
  <EndBlock>
  <BeginBlock>
    <BlockName> = "18 AWG"
    <Mu_x> = 1
    <Mu_y> = 1
    <H_c> = 0
    <H_cAngle> = 0
    <J_re> = 0
    <J_im> = 0
    <Sigma> = 58
    <d_lam> = 0
    <Phi_h> = 0
    <Phi_hx> = 0
    <Phi_hy> = 0
    <LamType> = 3
    <LamFill> = 1
    <NStrands> = 1
    <WireD> = 1.0239652968433499
    <BHPoints> = 0
  <EndBlock>
[CircuitProps]  = 2
  <BeginCircuit>
    <CircuitName> = "Coil"
    <TotalAmps_re> = 1.75
    <TotalAmps_im> = 0
    <CircuitType> = 1
  <EndCircuit>
  <BeginCircuit>
    <CircuitName> = "Coil_IGBT"
    <TotalAmps_re> = 6.25
    <TotalAmps_im> = 0
    <CircuitType> = 1
  <EndCircuit>
[NumPoints] = 28
-9.4499999999999993	0	0	0
9.4499999999999993	0	0	0
-9.4499999999999993	-20.199999999999999	0	0
9.4499999999999993	-20.199999999999999	0	0
-20.600000000000001	-20.199999999999999	0	0
20.600000000000001	0	0	0
-20.600000000000001	0	0	0
20.600000000000001	-20.199999999999999	0	0
27.25	0	0	0
27.25	-27.600000000000001	0	0
-27.25	0	0	0
-27.25	-27.600000000000001	0	0
-9.4500000000000028	1.3	0	0
9.4500000000000028	1.3	0	0
-9.4500000000000028	21.499999999999996	0	0
9.4500000000000028	21.499999999999996	0	0
-20.600000000000001	21.499999999999996	0	0
20.599999999999994	1.3	0	0
-20.600000000000001	1.3	0	0
20.599999999999994	21.499999999999996	0	0
27.25	1.3	0	0
27.25	28.899999999999999	0	0
-27.25	1.3	0	0
-27.25	28.899999999999999	0	0
40	-40	0	0
40	40	0	0
-40	40	0	0
-40	-40	0	0
[NumSegments] = 34
0	1	-1	0	0	0
2	0	-1	0	0	0
1	3	-1	0	0	0
2	4	-1	0	0	0
6	4	-1	0	0	0
3	7	-1	0	0	0
7	5	-1	0	0	0
6	10	-1	0	0	0
10	11	-1	0	0	0
11	9	-1	0	0	0
9	8	-1	0	0	0
5	8	-1	0	0	0
12	13	-1	0	0	0
14	12	-1	0	0	0
13	15	-1	0	0	0
14	16	-1	0	0	0
18	16	-1	0	0	0
15	19	-1	0	0	0
19	17	-1	0	0	0
18	22	-1	0	0	0
22	23	-1	0	0	0
23	21	-1	0	0	0
21	20	-1	0	0	0
17	20	-1	0	0	0
10	22	-1	0	0	0
6	18	-1	0	0	0
0	12	-1	0	0	0
1	13	-1	0	0	0
5	17	-1	0	0	0
8	20	-1	0	0	0
27	24	-1	1	0	0
25	24	-1	1	0	0
25	26	-1	1	0	0
26	27	-1	1	0	0
[NumArcSegments] = 0
[NumHoles] = 0
[NumBlockLabels] = 8
0	-6	3	-1	0	0	0	1	0
0	7.3000000000000007	3	-1	0	0	0	1	0
-34.100000000000001	4.2999999999999998	1	-1	0	0	0	1	0
-24.699999999999999	0.40000000000000002	1	-1	0	0	0	1	0
5.4000000000000004	0.69999999999999996	1	-1	0	0	0	1	0
23	0.69999999999999996	1	-1	0	0	0	1	0
-14.6	-1.7	4	-1	2	0	0	87	0
15.699999999999999	-3.7999999999999998	4	-1	2	0	0	-87	0
